<?xml version="1.0" encoding="UTF-8"?>

<!-- generated on Thu May  2 10:47:29 2019 by Eclipse SUMO duarouter Version 1.2.0
<configuration xmlns:xsi="http://www.w3.org/2001/XMLSchema-instance" xsi:noNamespaceSchemaLocation="http://sumo.dlr.de/xsd/duarouterConfiguration.xsd">

    <input>
        <net-file value="colombo.net.xml"/>
        <route-files value="trips.trips.xml"/>
    </input>

    <output>
        <output-file value="colombo.rou.xml"/>
        <alternatives-output value="colombo.rou.alt.xml"/>
    </output>

    <time>
        <begin value="0"/>
        <end value="1000.0"/>
    </time>

    <report>
        <no-warnings value="true"/>
        <ignore-errors value="true"/>
        <no-step-log value="true"/>
    </report>

</configuration>
-->

<routes xmlns:xsi="http://www.w3.org/2001/XMLSchema-instance" xsi:noNamespaceSchemaLocation="http://sumo.dlr.de/xsd/routes_file.xsd">
    <vehicle id="0" depart="0.00">
        <route edges="54045848 51193150#7 51193150#8 51193150#9 -48804586#3 -48804586#2 -48804586#1 313262043#2 198142607 48803635 200571271#1 200571271#2 362368110 51193425#0 51193425#1 51193425#2 51193425#3 51193425#4 51193425#5 51193425#6 51193425#7 51193425#8 51193425#9 51193425#10 51193425#11 51193425#12 51193425#13 48732490#0 48732490#1"/>
    </vehicle>
    <vehicle id="1" depart="1.00">
        <route edges="557370437 233499011#8 -487441125 -356689196 -356689195 -356689198#2 -356689198#1 -356689198#0 -356689199#3 -356689199#2 -356689199#1 -356689199#0 -391271250#2 -391271250#1 -391271250#0 -8111675 -311101595#4 -311101595#3 -311101595#2 -311101595#1 -311101595#0 -308344854#1 -308344854#0 310930756 48847399#5 48847399#6 48847399#7 48847399#8 48847399#0 48847399#1 48847393 48847396 665914480#0 665914479 -43444012#3 -43444012#2 238691704#2 390003247#1"/>
    </vehicle>
    <vehicle id="2" depart="2.00">
        <route edges="54059192#1 54059177#2 54059177#3 -48730913#0 -507119850 48730911#0 48730911#1 48730911#2 48730911#3 48730911#4 48730911#5 350014237#13 350014237#14 350014237#15 350014237#16 350014237#17 350014237#18 350014237#19 665898437 350016400 24256078 386046677#0 386046677#1 349861734#0 349861734#1 349861734#2 349861734#3 349861733#0 349861733#1 175791244 200571277 480882247 198343779#0 109355207#0 109355207#1 109355207#2 462376382#0 462376382#1 462376384#0 462376384#1 462376384#2 462376384#3 48807868#0 48807868#1 10548344#1 54134270#0 34695069#0 10548342#1 10548342#2"/>
    </vehicle>
    <vehicle id="3" depart="3.00">
        <route edges="10557897#1 48809063 374942956 -48809065#1 -48809065#0 -48730911#5 24791500#3 24791500#4 24791500#5 24791500#6 24791500#7 24791500#8 24791500#9 24791500#10 24791500#11 24791500#12 24791500#13 24791500#14 24791500#15 24791500#16 24791500#17 24791500#18 309708097#0 309708097#1 51193425#20 51193425#21 51193425#22 51193425#23 51193425#24 51193425#25 327263159 385396540#0 385396540#1 385396540#2"/>
    </vehicle>
    <vehicle id="4" depart="4.00">
        <route edges="24791500#18 309708097#0 235976579#4 235976579#5 235976579#6 235976579#7 235976579#8 235976579#9 235976579#10 235976579#11 -48730917#2 -48730917#1 -48730917#0 -491129116#9 -491129116#8 51191251#0"/>
    </vehicle>
    <vehicle id="5" depart="5.00">
        <route edges="233499011#6 233499011#7 233499011#8 -487441125 -356689196 -356689195 -356689198#2 -356689198#1 -356689198#0 -356689199#3 -356689199#2 -356689199#1 -356689199#0 -391271250#2 -391271250#1 -391271250#0 -8111675 -311101595#4 -311101595#3 -311101595#2 -311101595#1 -311101595#0 -308344854#1 -308344854#0 310930756 48847399#5 48847399#6 48847399#7 48847399#8 48847399#0 48847399#1 48847393 48847396 665914480#0 665914480#1 665914480#2 665914480#3 665914480#4 665914472 665914481#0 665914481#1 665914481#2 665914482#0 665914482#1 665896572#0 350014237#17 350014237#18 350014237#19 665898437 350016400 24256078 386046677#0 386046677#1 349861734#0 349861734#1 349861734#2 349861734#3 347544917 347544919#0 347544919#1 347544919#2 98046421 98046395#0 98046395#1 303066761#1 53094890#0 53094890#1 -34695084#4"/>
    </vehicle>
    <vehicle id="6" depart="6.00">
        <route edges="51193154 51193151#0 51193151#1 48803639#0 313262041#1 313262041#2 313262041#3 313262041#4 313262041#5 480882273 382475258 350014239#0 350014239#1 350014239#2 308342362#0 308342362#1 308342362#2 349861734#0 349861734#1 349861734#2 349861734#3 347544917 347544919#0 347544919#1 347544919#2 98046421 98046395#0 98046395#1 303066761#1 53094890#0 53094890#1 -34695084#4 -34695084#3 -34695084#2 -34695084#1 -34695084#0 -10548393#0 10548399 -34695079#1 -34695079#0 378240892#2 378240892#3 625320328#0 625320328#1 378240892#5 34695077 34695073#1 51269353"/>
    </vehicle>
    <vehicle id="8" depart="8.00">
        <route edges="359947709#3 259798301#0 259798301#1 356578615#0 356578615#1 185733519#0 185733519#1 185733519#2 668326455 668326454#0 668326454#1 23169388 194099559#0 194099559#1 194099559#2 359947710#0 359947710#1 359945311 48890990 194099239 112452777 48677467 24773533#7 24773533#8 24773533#9 24773533#10 24775231#0 24775231#1 24775231#2 24775231#3 24775231#4 24775231#5 24775231#6 24775231#7 24775231#8 24775231#9 24775231#10 24775231#11 24775231#12 24775231#13 24775231#14 389274953#0 389274953#1 389274953#2 385397101#0 385397101#1 235976579#0 235976579#1 235976579#2 235976579#3 309708097#1 309708096#0 309708096#1 309708096#2"/>
    </vehicle>
    <vehicle id="9" depart="9.00">
        <route edges="-552411640 311101595#10 311101595#11 311101595#12 311101595#13 311101595#14 311101595#15 311101595#16 311101595#17 552411650#0 552411650#1 552411650#2 552411650#3 552411650#4 552411650#5 -48731367#1 -48731367#0 48731368#0 48731368#1 48731370 366452498 391084172 235976579#6 235976579#7 235976579#8 235976579#9 235976579#10 235976579#11 235976579#12 235976579#13 235976579#14 235976579#15 -54063725#1 -54063725#0"/>
    </vehicle>
    <vehicle id="11" depart="11.00">
        <route edges="-48809065#1 -48809065#0 350014237#13 350014237#14 350014237#15 350014237#16 350014237#17 350014237#18 350014237#19 665898437 350016400 24256078 386046677#0 386046677#1 349861734#0 349861734#1 349861734#2 349861734#3 480882248 379161607#1 10557898#0 10557898#1 10557898#2 10557898#3 10557898#4 10557898#5 480882276 625329096#0 625329096#1 625329100 625329097#0 625329097#1 625329097#2 -625329095 625329091#3"/>
    </vehicle>
    <vehicle id="12" depart="12.00">
        <route edges="54135366 10548322#1 10548322#2 10548322#3 10548322#4 10548322#5 10548322#6 10548322#7 10548322#8 10548322#9 48805113 34695067#4 34695067#5 34695067#0 374792303#0 374792303#1 374792303#2 389064300 389064302#0 389064302#1 389064289#2 389064291#0 389064291#1 389064291#2 51081924#0 51081924#1 51081924#2 308348585#1 308348585#2 351910078 308348584 112750208 98371185 308341566 308341565#0 355488332 360180324#0 360180324#1 360180324#2 360180324#3 327344983 308341486 24255941 24255942#0 24255942#1 668323379 351911648#0 351911648#1 351911648#2 351911648#3 351911648#4 351911648#5 351911648#6 351911648#7 -13859252#8 -13859252#7 -13859252#6 -13859252#5 -13859252#4 -13859252#3 -13859252#2 -13859252#1 -13859252#0 50061483#0 50061483#1 50061483#2 50061483#3 50061483#4 194100149#3 48847394#0 48847394#1 48847399#1 48847399#2 48847399#3 48847399#4 48847399#5 13758915#0 13758915#1 467591926 18599245#0 18599245#1 467592551#0 467592551#1 467592551#2 467592551#3 -393272862"/>
    </vehicle>
    <vehicle id="13" depart="13.00">
        <route edges="-589250939 389274955#1 389274955#2 389274955#3 389274955#4 389274955#5 389274955#6 389274955#7 -356689195 24775231#11 24775231#12 24775231#13 24775231#14 389274953#0 389274953#1 389274953#2 385397101#0 385397101#1 235976579#0 235976579#1 235976579#2 235976579#3 235976579#4 235976579#5 235976579#6 235976579#7 235976579#8 235976579#9 235976579#10 235976579#11 235976579#12 235976579#13 235976579#14 235976579#15 235976579#16 -48730735#3 -48730735#2 -48730735#1 -48730735#0 -48730734#8 -48730734#7 -48730734#6 -48730734#5 51193156 221425459 221425458 -48803639#5 -48803639#4 -556014505#1 -556014505#0 312913561"/>
    </vehicle>
    <vehicle id="14" depart="14.00">
        <route edges="-53726589 -53726591#0 48679785#1 396537099#0 396537099#1 18599172#5 310937069 24793835#0 24793835#1 24793835#2 310937067 359947711 50732593#0 50732593#1 50732593#2 50732593#3 50732593#4 50732593#5 50732593#6 378863527#0 378863527#1 378863527#2 378863527#3 378863526#0 378863526#1 668305831#0 668305831#1 668305831#2 13859250#1 13859250#2 50061749#0 50061749#1 50061749#2 50061749#3 668323376 24255940#0 24255940#1 24255939 23924485#0 23924485#1 359949478#0 359949478#1 98371211#0 98371211#1 308341598 308341600#0 308341600#1 48749072#0 48749072#1 48749072#2 48749072#3 48749072#4 48749072#5 378862435 378862434 308348585#0 308348585#1 51081925 378863210#0 378863210#1 389064291#2 51081924#0"/>
    </vehicle>
    <vehicle id="15" depart="15.00">
        <route edges="48730913#1 -48730913#1 -48730913#0 -507119850 48730911#0 48730911#1 48730911#2 48730911#3 48730911#4 48730911#5 350014237#13 350014237#14 350014237#15 350014237#16 350014237#17 350014237#18 350014237#19 665898437 350016400 24256078 386046677#0 386046677#1 349861734#0 349861734#1 349861734#2 349861734#3 349861733#0 349861733#1 175791244 200571277 480882247 198343779#0 109355207#0 109355207#1 109355207#2 462376382#0 462376382#1 462376384#0 462376384#1 462376384#2 462376384#3 462376384#4 462376384#5 -462376384#5"/>
    </vehicle>
    <vehicle id="16" depart="16.00">
        <route edges="462376384#5 -462376384#5 -462376384#4 -462376384#3 -462376384#2 -462376384#1 -462376384#0 -462376382#1 -462376382#0 462376383#0 462376383#1 359950835#4 200571276 194101443 98046411 10548362#0 10548362#1 379161607#0 379161607#1 10557898#0 10557898#1 10557898#2 10557898#3 10557898#4 10557898#5 480882276 480882275 200571278#0"/>
    </vehicle>
    <vehicle id="17" depart="17.00">
        <route edges="378241128#3 10548298#5 -10548322#5 -10548322#4 34695072#0 34695072#1 -625320324#3 10548342#0 10548342#1 10548342#2 10548342#3 23194251#6 23194251#7 23194251#8 359950835#0 359950835#1 359950835#2 359950835#3 359950835#4 200571276 194101443 98046411 10548362#0 10548362#1 379161607#0 379161607#1 10557898#0 10557898#1 10557898#2 10557898#3 10557898#4 10557898#5 480882276 480882275 200571278#0 200571278#1 200571278#2 200571278#3 200571278#4 313262043#0 313262043#1 313262043#2 198142607 48803635 200571271#1 51193420#0 -385959613#2 -385959613#1 -385959613#0 -385959614#1 385959614#1"/>
    </vehicle>
    <vehicle id="18" depart="18.00">
        <route edges="-376923782 378848515#3 378848515#4 -48891772 356319074#2 289027979 455043526 455043509 455043517 455043095 455043472 455043465 455043461 455043456 455043449 455043369#0 455043369#1 455043356 455043345 53473737#0 53473737#1 455043335 455043325 455043201 455043184 455043168 455043315#0 455043315#1 455043149 455043139 98371210 98371187 18599046#5 18599046#6 18599046#0 18598833 553338377 553338378 10548280#7 10548280#0 10548280#1 51149923#0 51149923#1 518628099 194454261#0 194454261#1 194454261#2 48749072#4 48749072#5 54139134#0 54139134#1 54139134#2 54139134#3 354296659#0 354296659#1 354296659#2 389064289#0 312755405 389064305#0 389064305#1 389064307 34695067#2 327262039#0 327262039#1 -10548322#9 -10548322#8 -10548322#7 -10548322#6 -10548322#5 -10548322#4 -10548322#3 -51269355 -51269354 -51269353 34695073#2 199577908#0 199577908#1 199577908#2 199577908#3 199577908#4 199577908#5 199577908#6 199577908#7 625329103 -625329093#2 -625329093#1 -625329093#0"/>
    </vehicle>
    <vehicle id="19" depart="19.00">
        <route edges="29548364#1 10548335#4 10548342#2 10548342#3 23194251#6 23194251#7 23194251#8 359950835#0 359950835#1 359950835#2 359950835#3 359950835#4 200571276 194101443 98046411 10548362#0 10548362#1 379161607#0 379161607#1 10557898#0 10548353#0 10548353#1 98046406 247813317"/>
    </vehicle>
    <vehicle id="20" depart="20.00">
        <route edges="-490386466#2 312761343 -10548322#8 -10548322#7 10548321#0 10548321#1 10548321#2 10548321#3 10548321#4 10548321#5 23194251#4 23194251#5 23194251#6 23194251#7 23194251#8 359950835#0 359950835#1 359950835#2 359950835#3 359950835#4"/>
    </vehicle>
    <vehicle id="21" depart="21.00">
        <route edges="386048812#3 -376594244 13859252#6 23323434 -378863526#0 -378863527#3 -378863527#2 -378863527#1 -378863527#0 -50732593#6 -50732593#5 -50732593#4 -50732593#3 23951713#0 46940707#0 46940707#1 -206092105 -46940716#2 52446996#0 -52446996#0"/>
    </vehicle>
    <vehicle id="22" depart="22.00">
        <route edges="259451382 259451376#2 259451376#0 51268731#0 51268731#1 149420038#0 149420038#1 312761007 48703816#3 51268730 389064298 389064289#1 389064294 374792296#1 24790881#0 24790881#1 308826560 351910069#2 23570028#0 23570028#1 23194251#0 23194251#1 23194251#2 23194251#3 23194251#4 23194251#5 23194251#6 23194251#7 23194251#8 359950835#0 359950835#1 359950835#2 359950835#3 359950835#4 200571276 194101443 98046411 10548362#0 10548362#1 379161607#0 379161607#1 10557898#0 10557898#1 10557898#2 10557898#3 10557898#4 347544913 347544918 350014239#0 350014239#1 350014239#2 382475991 303066770 350016399 386046675 350014236#0 350014236#1 350014236#2 350014236#3 24256077#0 24256077#1 24791500#0 24791500#1 24791500#2 24791500#3 24791500#4 24791500#5 24791500#6 24791500#7 24791500#8 24791500#9 24791500#10 24791500#11 24791500#12 24791500#13 24791500#14 24791500#15 24791500#16 366452498 391084172"/>
    </vehicle>
    <vehicle id="23" depart="23.00">
        <route edges="-278275041 -10548396#3 -10548396#2 -10548396#1 -10548396#0 10548351#0 10548351#1 303066761#3 303066761#0 -98046395#1 -98046395#0 -98046421 -347544919#2 -347544919#1 -347544919#0 379161607#0 379161607#1 10557898#0 10557898#1 10557898#2 10557898#3 10557898#4 347544913 347544918 350014239#0 350014239#1 350014239#2 382475991 303066770 350016399 386046675 350014236#0 350014236#1 350014236#2 51988823#0 51988823#1 51988823#2 309705718 10557897#0 10557897#1 10557897#2 665914474 393186966#0 393186966#1 393186966#2 48847395#0 48847395#1 48847399#3 48847399#4 48847399#5 48847399#6 48847399#7 48847397 194100149#5 48678609#0 48678609#1 194100157#0 194100157#1 194100157#2 53840881 53840879#0 53840879#1 -52433912#1 359945310#1 665917692"/>
    </vehicle>
    <vehicle id="24" depart="24.00">
        <route edges="10548298#3 10548298#4 10548298#5 -10548322#5 -10548322#4 34695072#0 34695072#1 -625320324#3 -625320324#2 -625320324#1 -625320324#0 625320328#1 378240892#5 378240892#0 378240892#1 34695079#0 34695079#1 -10548399 10548393#0 10548393#1 10548396#0 10548396#1 10548396#2"/>
    </vehicle>
    <vehicle id="25" depart="25.00">
        <route edges="312914854 312913560#1 556014495 556014505#0 556014505#1 -48803639#3 -48803639#2 -48803639#1 -48803639#0 -51193151#1 -51193151#0 -51193154 48804586#3 -51193150#9 -51193150#8 -51193150#7 -51193150#6 -51193150#5 -54045837"/>
    </vehicle>
    <vehicle id="26" depart="26.00">
        <route edges="455043276#0 455043276#1 455043276#2 455043409 455043397 455043385 455043440 455043430 455043419#0 455043419#1 455043468 455043478#0 455043478#1 455043101 455043483 455043502 455043491#0 455043491#1 356578615#0 356578615#1 185733519#0 185733519#1 185733519#2 668326455 668326454#0 668326454#1 23169388 194099559#0 194099559#1 194099559#2 359947710#0 359947710#1 359945311 53841328#0 53841328#1 359945309 359945310#0 359945310#1 665917692 359945312#0 359945312#1 194100149#1 194100149#2 194100149#3 48847394#0 48847394#1 48847399#1 48847393 48847396 665914480#0 665914480#1 665914480#2 665914480#3 665914480#4 665914472 665914481#0 665914475 48809063 374942956 -48809065#1 -48809065#0 -48730911#5 -48730911#4 -48730911#3 -48730911#2 -48730911#1 -48730911#0 507119850 48730913#0 48730913#1 -491129116#8"/>
    </vehicle>
    <vehicle id="27" depart="27.00">
        <route edges="369743762 51193425#4 51193425#5 51193425#6 51193425#7 51193425#8 51193425#9 51193425#10 51193425#11 51193425#12 51193425#13 51193425#14 51193425#15 51193425#16 51193425#17 51193425#18 51193425#19 51193425#20 51193425#21 51193425#22 51193425#23 51193425#24 51193425#25 327263159 385396540#0 385396540#1 385396540#2 51911939#6 51911938#0 204361781#0 204361781#1 204361781#2 204361781#3 -228985626#1 -228985626#0 228985626#0"/>
    </vehicle>
    <vehicle id="28" depart="28.00">
        <route edges="374943165#2 374943165#3 374943165#4 374943168 -43444012#0 48810533#7 -390003246 -390003245#1 -390003245#0 -667317200 313260449 346468666 346468667 665896575 -385836966#8 -385836966#7 -385836966#6 -385836966#5 -385836966#4 -385836966#3 -385836966#2 -385836966#1 -385836966#0 -346469024 235976579#8 235976579#9 235976579#10 235976579#11 235976579#12 235976579#13 235976579#14 235976579#15 235976579#16 235976579#17 235976579#18 235976579#19 51193422#0 199290717 51193420#5 -55419510#3 -55419510#2 -55419510#1 -55419510#0"/>
    </vehicle>
    <vehicle id="29" depart="29.00">
        <route edges="187888350 350014237#1 48731370 366452498 391084172 235976579#6 235976579#7 235976579#8 235976579#9 235976579#10 235976579#11 235976579#12 235976579#13 235976579#14 235976579#15 235976579#16 235976579#17 235976579#18 235976579#19 51193422#0 199290717 51193420#5 -55419510#3 -55419510#2 -55419510#1 -55419511#1 55419510#0"/>
    </vehicle>
    <vehicle id="30" depart="30.00">
        <route edges="24775231#11 24775231#12 24775231#13 24775231#14 389274953#0 389274953#1 389274953#2 385397101#0 385397101#1 235976579#0 235976579#1 235976579#2 235976579#3 235976579#4 235976579#5 235976579#6 235976579#7 235976579#8 235976579#9 -54063729#2"/>
    </vehicle>
    <vehicle id="31" depart="31.00">
        <route edges="109355435#0 -109355435#0 34695084#0 34695084#1 34695084#2 34695084#3 34695084#4 -53094890#1 -53094890#0 303066761#2 303066761#3 303066761#0 -98046395#1 -98046395#0 -98046421 -347544919#2 -347544919#1 -347544919#0 379161607#0 379161607#1 10557898#0 10557898#1 10557898#2 10557898#3 10557898#4 347544913 347544918 350014239#0 350014239#1 350014239#2 382475991 303066770 350016399 386046675 350014236#0 350014236#1 350014236#2 350014236#3 24256077#0 24256077#1 24791500#0 24791500#1 24791500#2 24791500#3 24791500#4 24791500#5 24791500#6 24791500#7 24791500#8 24791500#9 24791500#10 24791500#11 24791500#12 24791500#13 24791500#14 24791500#15 24791500#16 366452498 391084172 235976579#6 235976579#7"/>
    </vehicle>
    <vehicle id="32" depart="32.00">
        <route edges="199577908#3 199577908#4 199577908#5 199577908#6 199577908#7 625329103 -625329093#2 -625329093#1 -378241180 -378241302#1 -378241302#0 -29461821 -378241303#1 625329091#1 625329091#2 625329091#3 625329091#4 625329098 625329099 200571278#0 200571278#1 200571278#2 200571278#3 200571278#4 313262043#0 313262043#1 313262043#2 198142607 48803635 200571271#1 200571271#2 362368110 51193425#0 51193425#1 51193425#2 51193425#3 51193425#4 51193425#5 34698617#1 34698617#2 34698617#3 34698617#4 34698617#5"/>
    </vehicle>
    <vehicle id="33" depart="33.00">
        <route edges="-389274952#1 -389274952#0 -389274954 389274955#0 389274955#1 389274955#2 389274955#3 389274955#4 389274955#5 389274955#6 389274955#7 389274955#8 389274955#9 389274955#10 389274955#11 389274955#12 389274955#13 389274955#14 389274955#15 389274955#16 389274955#17 24773533#1 24773533#2 24773533#3 24773533#4 112452775#0 112452775#1 112452775#2 112452775#3 112452772#1 112656145 194099277 48678604#0 48678604#1 24793835#0 24793835#1 24793835#2 310937067 359947711 50732593#0 50732593#1 50732593#2 23951713#0 23951713#1 53091316 -53091316"/>
    </vehicle>
    <vehicle id="34" depart="34.00">
        <route edges="175791242#0 175791242#1 175791241 351910070#0 351910070#1 308348584 194101179 308340214 -10590157#1 -10590157#0 48703481 10548280#5 8111663 553338380 553338379#0 553338379#1"/>
    </vehicle>
    <vehicle id="35" depart="35.00">
        <route edges="98046395#1 -98046395#1 -98046395#0 -98046421 -347544919#2 -347544919#1 -347544919#0 379161607#0 379161607#1 10557898#0 10557898#1 10557898#2 10557898#3 10557898#4 347544913 347544918 350014239#0 350014239#1 350014239#2 382475991 303066770 350016399 386046675 350014236#0 350014236#1 350014236#2 350014236#3 24256077#0 24256077#1 24791500#0 24791500#1 24791500#2 24791500#3 24791500#4 24791500#5 24791500#6 24791500#7 24791500#8 24791500#9 24791500#10 24791500#11 24791500#12 24791500#13 24791500#14 24791500#15 24791500#16 -48731370 -48731368#1 -48731368#0 48731367#0 48731367#1 -389274952#5 -389274952#4 -390001791#1 -390001791#0 -391272225#6 -391272225#5 -391272225#4 -391272225#3"/>
    </vehicle>
    <vehicle id="36" depart="36.00">
        <route edges="54058913 -366304372#3 -366304372#2 -366304372#1 -366304372#0 -346468665#1 24791500#6 24791500#7 24791500#8 24791500#9 24791500#10 24791500#11 24791500#12 24791500#13 24791500#14 24791500#15 24791500#16 -48731370 -48731368#1 -48731368#0 48731367#0 48731367#1 -389274952#5 -389274952#4 -389274952#3 -389274952#2 -389274952#1 -389274952#0 -389274954 389274955#0 389274955#1 389274955#2 389274955#3 389274955#4 389274955#5 389274955#6 389274955#7 389274955#8 389274955#9 389274955#10 389274955#11 389274955#12 389274955#13 389274955#14"/>
    </vehicle>
    <vehicle id="37" depart="37.00">
        <route edges="24773533#5 24773533#6 24773533#7 119971340#0 119971340#1 359934145#0 359934145#1 359934145#2 359934145#3 359934145#4 359934144 359934142 48847399#7 48847399#8 48847399#0 48847399#1 48847393 48847396 665914480#0 665914480#1 665914480#2 665914480#3 665914480#4 665914472 665914481#0 665914481#1 665914481#2 665914482#0 665914482#1 665896572#0 665896572#1 350014236#2 350014236#3 48730732#0 48730732#1 48730732#2 48730734#0 48730734#1 48730734#2 54059177#0 54059177#1"/>
    </vehicle>
    <vehicle id="38" depart="38.00">
        <route edges="-486761480 -51189916 235976579#7 235976579#8 235976579#9 235976579#10 235976579#11 235976579#12 235976579#13 235976579#14 235976579#15 235976579#16 235976579#17 235976579#18 235976579#19 51193426 51193424 51193423#0 51193423#1 51193423#2 200571272#0 51193149"/>
    </vehicle>
    <vehicle id="39" depart="39.00">
        <route edges="24791500#0 24791500#1 -54062627"/>
    </vehicle>
    <vehicle id="40" depart="40.00">
        <route edges="-48730734#7 48730734#7 48730734#8 48730735#0 48730735#1 48730735#2 199151501 235976579#18 34698617#0 51193425#6 51193425#7 51193425#8 51193425#9 51193425#10 51193425#11 51193425#12 51193425#13 51193425#14 51193425#15 51193425#16 51193425#17 48731536 391084171 311103269 311103273#0 376602319 -376602319"/>
    </vehicle>
    <vehicle id="41" depart="41.00">
        <route edges="-173114263#1 -173114263#0 386281524#1 665914476#0 204363964 665914475 48809063 374942956 -48809065#1 -48809065#0 -48730911#5 -48730911#4 -48730911#3 -48730911#2 -54059710#3 -54059711"/>
    </vehicle>
    <vehicle id="42" depart="42.00">
        <route edges="389274955#7 389274955#8 389274955#9 389274955#10 389274955#11 389274955#12 389274955#13 389274955#14 389274955#15 389274955#16 389274955#17 24773533#1 24773533#2 24773533#3 24773533#4 112452775#0 112452775#1 112452775#2 112452775#3 112452772#1 112656145 194099277 48678604#0 48678604#1 -310937069 -18599172#5 -18599172#4"/>
    </vehicle>
    <vehicle id="43" depart="43.00">
        <route edges="589250073 311545831 48726959#6 51982426 51911937#3 385397101#0 385397101#1 235976579#0 235976579#1 350014237#0 350014237#1 350014237#2 350014237#3 350014237#4 350014237#5 350014237#6 350014237#7 350014237#8 350014237#9 350014237#10 350014237#11 350014237#12 48809065#0 48810533#0"/>
    </vehicle>
    <vehicle id="44" depart="44.00">
        <route edges="48677467 24773533#7 119971340#0 119971340#1 359934145#0 359934145#1 359934145#2 359934145#3 359934145#4 359934144 359934142 48847399#7 48847397 194100149#5 194100149#6 194100149#0 194100149#1 23581014#0 23581014#1 23581014#2 23581014#3 23581014#4 13859252#0"/>
    </vehicle>
    <vehicle id="45" depart="45.00">
        <route edges="10557897#1 10557897#2 665914474 393186966#0 393186966#1 393186966#2 48847395#0 48847395#1 48847399#3 310930757 308344854#0 308344854#1 311101595#0 311101595#1 311101595#2 311101595#3 311101595#4 8111675 391271250#0 391271250#1 391271250#2 391272225#0 391272225#1 391272225#2 232605038"/>
    </vehicle>
    <vehicle id="46" depart="46.00">
        <route edges="-54063731#0 54063731#0 -48730917#1 -48730917#0 -491129116#9 -48730913#1 -48730913#0 -507119850 48730911#0 48730911#1 48730911#2 48730911#3 48730911#4 48730911#5 48809065#0 48809065#1 -374942956 311102112 238691705 311102111 393186966#0 48809068#0 48809068#1 48809068#2 665953582#5 665953582#6 23581014#2 23581014#3 23581014#4 13859252#0 13859252#1 13859252#2 13859252#3 13859252#4 13859252#5 13859252#6 13859252#7 13859252#8 13859250#0 13859250#1 13859250#2 -98046409#4 -98046409#3 -98046409#2 -98046409#1 -98046409#0 -98046404 -18598828#5 -18598828#4 -18598828#3 -18598828#2 -18598828#1 -18598828#0 18599046#3 13858419#0 13858419#1 98371204 98371219 455043132 -455043160 455043139 98371210"/>
    </vehicle>
    <vehicle id="47" depart="47.00">
        <route edges="34698634#1 34698634#2 -48732490#1 -48732490#0 51193425#14 51193425#15 24877914 235976579#8 235976579#9 235976579#10 235976579#11 235976579#12 235976579#13 235976579#14 235976579#15 235976579#16 235976579#17 235976579#18 235976579#19 51193426 51193424 51193423#0 51193423#1 51193423#2 198142607 48803635 200571271#1 51193420#0 51193420#1 51193420#2 51193420#3"/>
    </vehicle>
    <vehicle id="48" depart="48.00">
        <route edges="48588844#2 50159910 19882433#1 19882433#2 -48701746#1 -48701746#0 52433912#0 359945310#1 665917692 359945312#0 359945312#1 194100149#1 194100149#2 194100149#3 48847394#0 48847394#1 48847399#1 48847399#2 48847399#3 310930757 308344854#0 308344854#1 -53788208"/>
    </vehicle>
    <vehicle id="49" depart="49.00">
        <route edges="-173114263#1 -173114263#0 386281524#1 665914476#0 204363964 665914475 48809063 374942956 -48809065#1 -48809065#0 -48730911#5 24791500#3 24791500#4 24791500#5 24791500#6 24791500#7 24791500#8 24791500#9 24791500#10 346468667 665896575 -385836966#8 -385836966#7 -385836966#6 -385836966#5 -385836966#4 -385836966#3 -385836966#2 -385836966#1 -385836966#0 -346469024 235976579#8 235976579#9 235976579#10 235976579#11 235976579#12 235976579#13 235976579#14 235976579#15 235976579#16 235976579#17 235976579#18 34698617#0 34698617#1 199670014 473792925#3"/>
    </vehicle>
    <vehicle id="50" depart="50.00">
        <route edges="54063726#0 54063726#1 54063726#2 54063726#3 48730735#1 48730735#2 199151501 235976579#18 34698617#0 51193425#6 51193425#7 51193425#8 51193425#9 51193425#10 51193425#11 51193425#12 51193425#13 51193425#14 51193425#15 51193425#16 51193425#17 51193425#18 51193425#19 51193425#20 546725501 24255048 50002945 48731367#0 48731367#1 -552411650#5 -552411650#4 -552411650#3 -552411650#2 -552411650#1 -552411650#0 -311101595#17 -311101595#16 -311101595#15 -311101595#14 -311101595#13 -311101595#12 -311101595#11 -311101595#10 -311101595#9 -311101595#8 -311101595#7"/>
    </vehicle>
    <vehicle id="51" depart="51.00">
        <route edges="-376591198 -376591200#0 51193151#1 48803639#0 313262041#1 313262041#2 313262041#3 313262041#4 313262041#5 480882273 382475258 350014239#0 350014239#1 350014239#2 382475991 303066770 350016399 386046675 350014236#0 350014236#1 350014236#2 350014236#3 24256077#0 24256077#1 24791500#0 24791500#1 24791500#2 24791500#3 24791500#4 24791500#5 24791500#6 24791500#7 24791500#8 24791500#9 24791500#10 24791500#11 24791500#12 24791500#13 24791500#14 24791500#15 24791500#16 24791500#17 24791500#18 309708097#0 309708097#1 309708096#0 309708096#1 309708096#2 309708096#3 346332538 391084167 351660877 50633773#1"/>
    </vehicle>
    <vehicle id="53" depart="53.00">
        <route edges="-29461824#0 34695091 -378241179"/>
    </vehicle>
    <vehicle id="54" depart="54.00">
        <route edges="-53091316 -23951713#1 46940707#0 46940707#1 46940707#2 46940707#3 53091314#0 53091314#1 194099559#2 359947710#0 359947710#1 359945311 53841328#0 53841328#1 359945309 359945310#0 359945310#1 665917692 359945312#0 359945312#1 194100149#1 194100149#2 194100149#3 48847394#0 48847394#1 48847399#1 48847393 48847396 665914480#0 665914479 -43444012#3 -43444012#2 -43444012#1 -43444012#0 -48810533#6 -48810533#5 -48810533#4 -48810533#3 -313320060"/>
    </vehicle>
    <vehicle id="55" depart="55.00">
        <route edges="343359263#4 343359263#5 343359263#6 343359263#7 343359263#8 343359263#9 546725501 350014237#0 350014237#1 350014237#2 350014237#3 350014237#4 350014237#5 350014237#6 350014237#7 350014237#8 350014237#9 350014237#10 350014237#11 349863240 -48810533#1 51191248 -374943165#0"/>
    </vehicle>
    <vehicle id="56" depart="56.00">
        <route edges="48803639#3 -48803639#3 -48803639#2 -48803639#1 -48803639#0 200571278#4 313262043#0 313262043#1 313262043#2 198142607 48803635 200571271#1 51193420#0 -385959613#2 385959613#2"/>
    </vehicle>
    <vehicle id="57" depart="57.00">
        <route edges="54139287 54139285 386281522 262527817#5 262527817#0 262527817#1 262527817#2 379183237#0 194454261#0 194454261#1 194454261#2 48749072#4 48749072#5 378862435 378862434 308348585#0 308348585#1 308348585#2 351910069#0 351910069#1 351910069#2 23570028#0 23570028#1 23194251#0 23194251#1 23194251#2 23194251#3 23194251#4 23194251#5 23194251#6 23194251#7 23194251#8 359950835#0 359950835#1 359950835#2 359950835#3 359950835#4 200571276 194101443 98046411 10548362#0 10548362#1 379161607#0 379161607#1 10557898#0 10557898#1 10557898#2 10557898#3 10557898#4 10557898#5 480882276 480882275 200571278#0 200571278#1 200571278#2 200571278#3 200571278#4 313262043#0 313262043#1 313262043#2 200571272#0"/>
    </vehicle>
    <vehicle id="58" depart="58.00">
        <route edges="-34695088#2 -34695088#1 -34695088#0 -10548396#0 10548351#0 10548351#1 303066761#3 303066761#0 -98046395#1 347548880 -98046427 -313261242 247813317"/>
    </vehicle>
    <vehicle id="59" depart="59.00">