<?xml version="1.0" encoding="UTF-8"?>
<!-- generated on 2019-05-02 10:47:27.145292 by $Id$
  options: -n colombo.net.xml -r colombo.rou.xml -e 1000 -l
-->
<routes xmlns:xsi="http://www.w3.org/2001/XMLSchema-instance" xsi:noNamespaceSchemaLocation="http://sumo.dlr.de/xsd/routes_file.xsd">
    <trip id="0" depart="0.00" from="54045848" to="48732490#1"/>
    <trip id="1" depart="1.00" from="557370437" to="390003247#1"/>
    <trip id="2" depart="2.00" from="54059192#1" to="10548342#2"/>
    <trip id="3" depart="3.00" from="10557897#1" to="385396540#2"/>
    <trip id="4" depart="4.00" from="24791500#18" to="51191251#0"/>
    <trip id="5" depart="5.00" from="233499011#6" to="-34695084#4"/>
    <trip id="6" depart="6.00" from="51193154" to="51269353"/>
    <trip id="7" depart="7.00" from="-378847815" to="-10548322#1"/>
    <trip id="8" depart="8.00" from="359947709#3" to="309708096#2"/>
    <trip id="9" depart="9.00" from="-552411640" to="-54063725#0"/>
    <trip id="10" depart="10.00" from="-54063726#2" to="-52450844"/>
    <trip id="11" depart="11.00" from="-48809065#1" to="625329091#3"/>
    <trip id="12" depart="12.00" from="54135366" to="-393272862"/>
    <trip id="13" depart="13.00" from="-589250939" to="312913561"/>
    <trip id="14" depart="14.00" from="-53726589" to="51081924#0"/>
    <trip id="15" depart="15.00" from="48730913#1" to="-462376384#5"/>
    <trip id="16" depart="16.00" from="462376384#5" to="200571278#0"/>
    <trip id="17" depart="17.00" from="378241128#3" to="385959614#1"/>
    <trip id="18" depart="18.00" from="-376923782" to="-625329093#0"/>
    <trip id="19" depart="19.00" from="29548364#1" to="247813317"/>
    <trip id="20" depart="20.00" from="-490386466#2" to="359950835#4"/>
    <trip id="21" depart="21.00" from="386048812#3" to="-52446996#0"/>
    <trip id="22" depart="22.00" from="259451382" to="391084172"/>
    <trip id="23" depart="23.00" from="-278275041" to="665917692"/>
    <trip id="24" depart="24.00" from="10548298#3" to="10548396#2"/>
    <trip id="25" depart="25.00" from="312914854" to="-54045837"/>
    <trip id="26" depart="26.00" from="455043276#0" to="-491129116#8"/>
    <trip id="27" depart="27.00" from="369743762" to="228985626#0"/>
    <trip id="28" depart="28.00" from="374943165#2" to="-55419510#0"/>
    <trip id="29" depart="29.00" from="187888350" to="55419510#0"/>
    <trip id="30" depart="30.00" from="24775231#11" to="-54063729#2"/>
    <trip id="31" depart="31.00" from="109355435#0" to="235976579#7"/>
    <trip id="32" depart="32.00" from="199577908#3" to="34698617#5"/>
    <trip id="33" depart="33.00" from="-389274952#1" to="-53091316"/>
    <trip id="34" depart="34.00" from="175791242#0" to="553338379#1"/>
    <trip id="35" depart="35.00" from="98046395#1" to="-391272225#3"/>
    <trip id="36" depart="36.00" from="54058913" to="389274955#14"/>
    <trip id="37" depart="37.00" from="24773533#5" to="54059177#1"/>
    <trip id="38" depart="38.00" from="-486761480" to="51193149"/>
    <trip id="39" depart="39.00" from="24791500#0" to="-54062627"/>
    <trip id="40" depart="40.00" from="-48730734#7" to="-376602319"/>
    <trip id="41" depart="41.00" from="-173114263#1" to="-54059711"/>
    <trip id="42" depart="42.00" from="389274955#7" to="-18599172#4"/>
    <trip id="43" depart="43.00" from="589250073" to="48810533#0"/>
    <trip id="44" depart="44.00" from="48677467" to="13859252#0"/>
    <trip id="45" depart="45.00" from="10557897#1" to="232605038"/>
    <trip id="46" depart="46.00" from="-54063731#0" to="98371210"/>
    <trip id="47" depart="47.00" from="34698634#1" to="51193420#3"/>
    <trip id="48" depart="48.00" from="48588844#2" to="-53788208"/>
    <trip id="49" depart="49.00" from="-173114263#1" to="473792925#3"/>
    <trip id="50" depart="50.00" from="54063726#0" to="-311101595#7"/>
    <trip id="51" depart="51.00" from="-376591198" to="50633773#1"/>
    <trip id="52" depart="52.00" from="54138794" to="-378848515#0"/>
    <trip id="53" depart="53.00" from="-29461824#0" to="-378241179"/>
    <trip id="54" depart="54.00" from="-53091316" to="-313320060"/>
    <trip id="55" depart="55.00" from="343359263#4" to="-374943165#0"/>
    <trip id="56" depart="56.00" from="48803639#3" to="385959613#2"/>
    <trip id="57" depart="57.00" from="54139287" to="200571272#0"/>
    <trip id="58" depart="58.00" from="-34695088#2" to="247813317"/>
    <trip id="59" depart="59.00" from="247813317" to="24775231#5"/>
    <trip id="60" depart="60.00" from="378862965#1" to="378241302#1"/>
    <trip id="61" depart="61.00" from="54063729#2" to="-54045848"/>
    <trip id="62" depart="62.00" from="313262043#2" to="391084170#0"/>
    <trip id="63" depart="63.00" from="349861734#3" to="48701746#0"/>
    <trip id="64" depart="64.00" from="-34695087" to="-52774235#0"/>
    <trip id="65" depart="65.00" from="356689199#2" to="231068280#0"/>
    <trip id="66" depart="66.00" from="-50633773#3" to="552411643"/>
    <trip id="67" depart="67.00" from="385836966#7" to="391084172"/>
    <trip id="68" depart="68.00" from="54062624#1" to="182130062#1"/>
    <trip id="69" depart="69.00" from="376546736#0" to="-54135364#0"/>
    <trip id="70" depart="70.00" from="-385959614#1" to="-347544911#0"/>
    <trip id="71" depart="71.00" from="55419511#0" to="-231068808#1"/>
    <trip id="72" depart="72.00" from="-52936204#1" to="13859252#0"/>
    <trip id="73" depart="73.00" from="-10548351#1" to="376547426"/>
    <trip id="74" depart="74.00" from="-173114275#2" to="351911648#5"/>
    <trip id="75" depart="75.00" from="309708096#7" to="13758914#1"/>
    <trip id="76" depart="76.00" from="50075630#3" to="665953582#2"/>
    <trip id="77" depart="77.00" from="359950100#0" to="-54058913"/>
    <trip id="78" depart="78.00" from="-194454262#0" to="351911648#1"/>
    <trip id="79" depart="79.00" from="455043315#0" to="51269353"/>
    <trip id="80" depart="80.00" from="52936773#1" to="-314515655"/>
    <trip id="81" depart="81.00" from="508772852#0" to="13884292#1"/>
    <trip id="82" depart="82.00" from="51193425#17" to="-199428332#0"/>
    <trip id="83" depart="83.00" from="385958837" to="351660877"/>
    <trip id="84" depart="84.00" from="55419708#1" to="-51193152"/>
    <trip id="85" depart="85.00" from="10548298#2" to="-390001792"/>
    <trip id="86" depart="86.00" from="231068806#1" to="51270649#0"/>
    <trip id="87" depart="87.00" from="467592551#0" to="-53721138#0"/>
    <trip id="88" depart="88.00" from="48730915" to="-50738240#0"/>
    <trip id="89" depart="89.00" from="29461824#2" to="13884292#2"/>
    <trip id="90" depart="90.00" from="34695081#1" to="54135368#0"/>
    <trip id="91" depart="91.00" from="376563404" to="376923683"/>
    <trip id="92" depart="92.00" from="309708096#7" to="-349863240"/>
    <trip id="93" depart="93.00" from="-29461757#0" to="-109355436"/>
    <trip id="94" depart="94.00" from="55419707" to="359945312#0"/>
    <trip id="95" depart="95.00" from="-552411649" to="-204361781#0"/>
    <trip id="96" depart="96.00" from="34695090" to="-552411650#1"/>
    <trip id="97" depart="97.00" from="-50633773#2" to="51189382"/>
    <trip id="98" depart="98.00" from="313262044#5" to="-50633780#0"/>
    <trip id="99" depart="99.00" from="48588739" to="-391272225#0"/>
    <trip id="100" depart="100.00" from="24745878" to="386048812#4"/>
    <trip id="101" depart="101.00" from="-491129116#5" to="378365791"/>
    <trip id="102" depart="102.00" from="24790881#1" to="350014239#2"/>
    <trip id="103" depart="103.00" from="-51191248" to="-48588739"/>
    <trip id="104" depart="104.00" from="-317497969" to="396537099#1"/>
    <trip id="105" depart="105.00" from="396033081#1" to="52936203"/>
    <trip id="106" depart="106.00" from="54045839" to="-240361223#0"/>
    <trip id="107" depart="107.00" from="312761007" to="-29461824#2"/>
    <trip id="108" depart="108.00" from="665953582#3" to="308346187#7"/>
    <trip id="109" depart="109.00" from="-490386466#2" to="-376923674"/>
    <trip id="110" depart="110.00" from="50737732#1" to="29461835#1"/>
    <trip id="111" depart="111.00" from="-326522590" to="23581014#0"/>
    <trip id="112" depart="112.00" from="13859252#2" to="99242184#0"/>
    <trip id="113" depart="113.00" from="-53721010#0" to="376546729#1"/>
    <trip id="114" depart="114.00" from="98046409#1" to="29461757#0"/>
    <trip id="115" depart="115.00" from="-390001791#0" to="-52936204#1"/>
    <trip id="116" depart="116.00" from="-589250072" to="182130062#1"/>
    <trip id="117" depart="117.00" from="455043419#1" to="-533727067"/>
    <trip id="118" depart="118.00" from="233499011#4" to="198142611#2"/>
    <trip id="119" depart="119.00" from="235976579#9" to="238691704#1"/>
    <trip id="120" depart="120.00" from="-10548322#6" to="-52936204#1"/>
    <trip id="121" depart="121.00" from="313262041#2" to="-376563405"/>
    <trip id="122" depart="122.00" from="23951713#1" to="48730734#2"/>
    <trip id="123" depart="123.00" from="10548342#3" to="18598828#2"/>
    <trip id="124" depart="124.00" from="-10548322#1" to="359945312#1"/>
    <trip id="125" depart="125.00" from="-490386466#2" to="-376546731#0"/>
    <trip id="126" depart="126.00" from="54058913" to="-366304372#5"/>
    <trip id="127" depart="127.00" from="-53473751#2" to="-53473733"/>
    <trip id="128" depart="128.00" from="10548322#7" to="55419708#1"/>
    <trip id="129" depart="129.00" from="55419510#0" to="359934143#0"/>
    <trip id="130" depart="130.00" from="53473751#2" to="99242184#1"/>
    <trip id="131" depart="131.00" from="10548321#5" to="351660872"/>
    <trip id="132" depart="132.00" from="50732593#0" to="376594243"/>
    <trip id="133" depart="133.00" from="405259228" to="-13859252#7"/>
    <trip id="134" depart="134.00" from="182130073#0" to="-173114263#1"/>
    <trip id="135" depart="135.00" from="10557898#3" to="51193150#0"/>
    <trip id="136" depart="136.00" from="51193425#17" to="378365791"/>
    <trip id="137" depart="137.00" from="-462376384#2" to="374943168"/>
    <trip id="138" depart="138.00" from="350014237#5" to="-199670014"/>
    <trip id="139" depart="139.00" from="54063727#0" to="10548393#1"/>
    <trip id="140" depart="140.00" from="24255942#1" to="54058913"/>
    <trip id="141" depart="141.00" from="-29461742" to="389274952#4"/>
    <trip id="142" depart="142.00" from="-51191250" to="-361355640"/>
    <trip id="143" depart="143.00" from="-53721136#2" to="347544911#0"/>
    <trip id="144" depart="144.00" from="-311101595#7" to="-378862965#0"/>
    <trip id="145" depart="145.00" from="23606880" to="13859250#2"/>
    <trip id="146" depart="146.00" from="50061749#3" to="29461844#1"/>
    <trip id="147" depart="147.00" from="313262043#2" to="-54058914"/>
    <trip id="148" depart="148.00" from="10548335#0" to="-48730734#4"/>
    <trip id="149" depart="149.00" from="200571272#0" to="55419510#2"/>
    <trip id="150" depart="150.00" from="-54058911" to="-29461835#1"/>
    <trip id="151" depart="151.00" from="50738235#0" to="625329091#2"/>
    <trip id="152" depart="152.00" from="-376546736#0" to="97787758"/>
    <trip id="153" depart="153.00" from="51193149" to="366452499#1"/>
    <trip id="154" depart="154.00" from="-228985624#1" to="-491129116#12"/>
    <trip id="155" depart="155.00" from="-376594244" to="343359263#3"/>
    <trip id="156" depart="156.00" from="10548322#1" to="10548362#0"/>
    <trip id="157" depart="157.00" from="-13859252#0" to="-13859252#4"/>
    <trip id="158" depart="158.00" from="-13858379#5" to="-487441125"/>
    <trip id="159" depart="159.00" from="-54059715#1" to="48730734#6"/>
    <trip id="160" depart="160.00" from="378848515#0" to="-54063729#2"/>
    <trip id="161" depart="161.00" from="198142590#0" to="385959614#1"/>
    <trip id="162" depart="162.00" from="556014494" to="48730732#2"/>
    <trip id="163" depart="163.00" from="-356689197#1" to="54139183"/>
    <trip id="164" depart="164.00" from="18599172#3" to="-54045838"/>
    <trip id="165" depart="165.00" from="48750350#1" to="200571278#3"/>
    <trip id="166" depart="166.00" from="23323430#0" to="-390003247#1"/>
    <trip id="167" depart="167.00" from="144905255#1" to="51193425#4"/>
    <trip id="168" depart="168.00" from="350014237#12" to="198142611#2"/>
    <trip id="169" depart="169.00" from="53473738" to="-386048812#0"/>
    <trip id="170" depart="170.00" from="-231068811#0" to="51270649#1"/>
    <trip id="171" depart="171.00" from="-396537101#0" to="54059710#1"/>
    <trip id="172" depart="172.00" from="-491129116#13" to="376583503"/>
    <trip id="173" depart="173.00" from="18599245#0" to="194454260#1"/>
    <trip id="174" depart="174.00" from="50737732#0" to="235976579#7"/>
    <trip id="175" depart="175.00" from="528803181#0" to="311101595#13"/>
    <trip id="176" depart="176.00" from="51193425#10" to="-53473734"/>
    <trip id="177" depart="177.00" from="-390001790#4" to="51193425#0"/>
    <trip id="178" depart="178.00" from="308346187#2" to="-231068806#0"/>
    <trip id="179" depart="179.00" from="48755166#0" to="50061483#4"/>
    <trip id="180" depart="180.00" from="-54139286" to="-48730734#8"/>
    <trip id="181" depart="181.00" from="51269355" to="98046395#1"/>
    <trip id="182" depart="182.00" from="10548322#0" to="-53726589"/>
    <trip id="183" depart="183.00" from="-50738235#1" to="48730732#2"/>
    <trip id="184" depart="184.00" from="-53091316" to="-10548322#0"/>
    <trip id="185" depart="185.00" from="259451382" to="-51191251#0"/>
    <trip id="186" depart="186.00" from="53720963" to="-378241301"/>
    <trip id="187" depart="187.00" from="173114260" to="385957470#1"/>
    <trip id="188" depart="188.00" from="53473751#2" to="-528803183"/>
    <trip id="189" depart="189.00" from="259451382" to="552411650#1"/>
    <trip id="190" depart="190.00" from="-13859252#2" to="350014237#14"/>
    <trip id="191" depart="191.00" from="23606880" to="235976579#19"/>
    <trip id="192" depart="192.00" from="-10548353#1" to="99242187#2"/>
    <trip id="193" depart="193.00" from="-361355640" to="-378848515#1"/>
    <trip id="194" depart="194.00" from="-199428333" to="625329091#4"/>
    <trip id="195" depart="195.00" from="-29461824#2" to="51193150#0"/>
    <trip id="196" depart="196.00" from="-54063726#3" to="50737732#1"/>
    <trip id="197" depart="197.00" from="99242184#1" to="-23951713#1"/>
    <trip id="198" depart="198.00" from="-374789507#1" to="48810533#0"/>
    <trip id="199" depart="199.00" from="48588844#2" to="198343779#1"/>
    <trip id="200" depart="200.00" from="144905255#0" to="312914854"/>
    <trip id="201" depart="201.00" from="386281524#0" to="378241306#1"/>
    <trip id="202" depart="202.00" from="54063736" to="50075272"/>
    <trip id="203" depart="203.00" from="202650653" to="51191250"/>
    <trip id="204" depart="204.00" from="313319989" to="359945311"/>
    <trip id="205" depart="205.00" from="48677467" to="29461921#1"/>
    <trip id="206" depart="206.00" from="490386466#0" to="665953582#2"/>
    <trip id="207" depart="207.00" from="355232832" to="608461991"/>
    <trip id="208" depart="208.00" from="223115525#0" to="351911648#3"/>
    <trip id="209" depart="209.00" from="48730732#2" to="51193423#1"/>
    <trip id="210" depart="210.00" from="311101595#16" to="29461757#2"/>
    <trip id="211" depart="211.00" from="228985627" to="173112618"/>
    <trip id="212" depart="212.00" from="54139287" to="10586778#1"/>
    <trip id="213" depart="213.00" from="-51193149" to="48847396"/>
    <trip id="214" depart="214.00" from="-366452499#3" to="372920768"/>
    <trip id="215" depart="215.00" from="-313262044#5" to="29461921#1"/>
    <trip id="216" depart="216.00" from="24791500#14" to="48702707"/>
    <trip id="217" depart="217.00" from="378848515#0" to="-182130059#1"/>
    <trip id="218" depart="218.00" from="314515663" to="48754795"/>
    <trip id="219" depart="219.00" from="48810533#1" to="175791241"/>
    <trip id="220" depart="220.00" from="-55418722#1" to="-55419510#0"/>
    <trip id="221" depart="221.00" from="-311102597" to="54139184"/>
    <trip id="222" depart="222.00" from="187888353" to="378241302#1"/>
    <trip id="223" depart="223.00" from="-50633773#3" to="311103273#3"/>
    <trip id="224" depart="224.00" from="359950835#0" to="-625320324#0"/>
    <trip id="225" depart="225.00" from="54061941" to="51189914"/>
    <trip id="226" depart="226.00" from="313262041#2" to="390001791#1"/>
    <trip id="227" depart="227.00" from="-98049824" to="34695089#0"/>
    <trip id="228" depart="228.00" from="378863527#3" to="396537099#1"/>
    <trip id="229" depart="229.00" from="389274955#1" to="-396537100#0"/>
    <trip id="230" depart="230.00" from="313319990" to="352006251"/>
    <trip id="231" depart="231.00" from="376546747#0" to="233499011#12"/>
    <trip id="232" depart="232.00" from="-314515665" to="29461824#2"/>
    <trip id="233" depart="233.00" from="23169388" to="182130073#0"/>
    <trip id="234" depart="234.00" from="376546736#0" to="200571278#3"/>
    <trip id="235" depart="235.00" from="98965445" to="-312914854"/>
    <trip id="236" depart="236.00" from="34698634#1" to="24255942#0"/>
    <trip id="237" depart="237.00" from="625329091#1" to="-54058143"/>
    <trip id="238" depart="238.00" from="-97786197" to="625329093#1"/>
    <trip id="239" depart="239.00" from="356689197#0" to="23581014#3"/>
    <trip id="240" depart="240.00" from="83913193#0" to="-507119849"/>
    <trip id="241" depart="241.00" from="48755167#0" to="-52936204#1"/>
    <trip id="242" depart="242.00" from="-467592567" to="-48732490#3"/>
    <trip id="243" depart="243.00" from="-54059192#1" to="-376546731#0"/>
    <trip id="244" depart="244.00" from="378863526#1" to="235976579#7"/>
    <trip id="245" depart="245.00" from="390003247#1" to="238691704#1"/>
    <trip id="246" depart="246.00" from="-378241301" to="54059192#0"/>
    <trip id="247" depart="247.00" from="-46940716#0" to="379183237#1"/>
    <trip id="248" depart="248.00" from="389064302#0" to="198142633"/>
    <trip id="249" depart="249.00" from="24255940#1" to="24255940#0"/>
    <trip id="250" depart="250.00" from="362368110" to="378863527#1"/>
    <trip id="251" depart="251.00" from="48732490#3" to="13858379#1"/>
    <trip id="252" depart="252.00" from="-23951713#0" to="-23606880"/>
    <trip id="253" depart="253.00" from="-50738234#1" to="247813317"/>
    <trip id="254" depart="254.00" from="-552411648" to="455043356"/>
    <trip id="255" depart="255.00" from="247813317" to="-308349326"/>
    <trip id="256" depart="256.00" from="-10548393#1" to="553338379#1"/>
    <trip id="257" depart="257.00" from="50732593#4" to="51193149"/>
    <trip id="258" depart="258.00" from="50738240#0" to="-51189911#2"/>
    <trip id="259" depart="259.00" from="10548362#0" to="376923674"/>
    <trip id="260" depart="260.00" from="173112629" to="-557370436"/>
    <trip id="261" depart="261.00" from="-346468665#1" to="10548374#0"/>
    <trip id="262" depart="262.00" from="359947711" to="23581014#4"/>
    <trip id="263" depart="263.00" from="51193425#17" to="-29461757#3"/>
    <trip id="264" depart="264.00" from="378241302#1" to="-50738236#2"/>
    <trip id="265" depart="265.00" from="-48588739" to="352006252#1"/>
    <trip id="266" depart="266.00" from="13859252#2" to="48803639#4"/>
    <trip id="267" depart="267.00" from="313262043#1" to="-556014501"/>
    <trip id="268" depart="268.00" from="467592508#0" to="355232832"/>
    <trip id="269" depart="269.00" from="-50633773#1" to="-53091316"/>
    <trip id="270" depart="270.00" from="-278275041" to="477647320"/>
    <trip id="271" depart="271.00" from="-490386466#2" to="-233499011#14"/>
    <trip id="272" depart="272.00" from="34698634#1" to="-50738234#1"/>
    <trip id="273" depart="273.00" from="50738235#0" to="-379857088"/>
    <trip id="274" depart="274.00" from="389274955#14" to="-259451382"/>
    <trip id="275" depart="275.00" from="-376594244" to="-376546729#0"/>
    <trip id="276" depart="276.00" from="-34695081#2" to="-366452499#2"/>
    <trip id="277" depart="277.00" from="350014237#3" to="-386048812#0"/>
    <trip id="278" depart="278.00" from="24745879" to="-385957470#3"/>
    <trip id="279" depart="279.00" from="313262043#2" to="-182130071#1"/>
    <trip id="280" depart="280.00" from="235976579#0" to="112452775#2"/>
    <trip id="281" depart="281.00" from="51193425#13" to="50061749#0"/>
    <trip id="282" depart="282.00" from="665953582#3" to="-378848515#0"/>
    <trip id="283" depart="283.00" from="-228985625#1" to="552411649"/>
    <trip id="284" depart="284.00" from="-228985624#1" to="24255942#1"/>
    <trip id="285" depart="285.00" from="53788288" to="-34695075"/>
    <trip id="286" depart="286.00" from="386048812#0" to="13858379#4"/>
    <trip id="287" depart="287.00" from="369743762" to="-54059177#2"/>
    <trip id="288" depart="288.00" from="378241306#1" to="-53473751#1"/>
    <trip id="289" depart="289.00" from="491129116#10" to="376583490"/>
    <trip id="290" depart="290.00" from="-224073546" to="552411640"/>
    <trip id="291" depart="291.00" from="-54057560" to="48750350#0"/>
    <trip id="292" depart="292.00" from="311101595#13" to="-52445146#0"/>
    <trip id="293" depart="293.00" from="51189381" to="-390001792"/>
    <trip id="294" depart="294.00" from="378863527#3" to="-53721136#0"/>
    <trip id="295" depart="295.00" from="533727067" to="376923674"/>
    <trip id="296" depart="296.00" from="389064300" to="-396537098"/>
    <trip id="297" depart="297.00" from="-48730913#0" to="-34695069#0"/>
    <trip id="298" depart="298.00" from="379857061" to="23581014#0"/>
    <trip id="299" depart="299.00" from="351660872" to="-182130073#0"/>
    <trip id="300" depart="300.00" from="225521575" to="553338379#1"/>
    <trip id="301" depart="301.00" from="54062627" to="356689197#1"/>
    <trip id="302" depart="302.00" from="52936773#0" to="359934144"/>
    <trip id="303" depart="303.00" from="-306675158" to="-54138794"/>
    <trip id="304" depart="304.00" from="-51193150#1" to="386048812#4"/>
    <trip id="305" depart="305.00" from="52450847" to="378241302#1"/>
    <trip id="306" depart="306.00" from="-13858379#5" to="343359263#2"/>
    <trip id="307" depart="307.00" from="350016401" to="48891593"/>
    <trip id="308" depart="308.00" from="-55419510#0" to="-556014496"/>
    <trip id="309" depart="309.00" from="-54058911" to="-313262044#5"/>
    <trip id="310" depart="310.00" from="359947709#2" to="194454260#1"/>
    <trip id="311" depart="311.00" from="51193422#4" to="-553276933"/>
    <trip id="312" depart="312.00" from="-34695082" to="51193425#17"/>
    <trip id="313" depart="313.00" from="-54059715#1" to="-55419708#1"/>
    <trip id="314" depart="314.00" from="149420038#2" to="-54058911"/>
    <trip id="315" depart="315.00" from="-54139183" to="-13858379#3"/>
    <trip id="316" depart="316.00" from="-378241301" to="346332538"/>
    <trip id="317" depart="317.00" from="99242184#1" to="48730734#1"/>
    <trip id="318" depart="318.00" from="46940707#1" to="53720963"/>
    <trip id="319" depart="319.00" from="24775231#13" to="378863210#0"/>
    <trip id="320" depart="320.00" from="48677467" to="343359263#4"/>
    <trip id="321" depart="321.00" from="-352006225" to="23581014#0"/>
    <trip id="322" depart="322.00" from="-467592567" to="-51193149"/>
    <trip id="323" depart="323.00" from="362368110" to="13858379#5"/>
    <trip id="324" depart="324.00" from="46940752" to="346332673"/>
    <trip id="325" depart="325.00" from="200571278#1" to="-200566458#8"/>
    <trip id="326" depart="326.00" from="54135368#0" to="-376563405"/>
    <trip id="327" depart="327.00" from="-8748509#3" to="590259493"/>
    <trip id="328" depart="328.00" from="378848515#0" to="34695084#0"/>
    <trip id="329" depart="329.00" from="34695072#0" to="149420038#0"/>
    <trip id="330" depart="330.00" from="-390003247#0" to="405259228"/>
    <trip id="331" depart="331.00" from="99242187#0" to="390001792"/>
    <trip id="332" depart="332.00" from="54057561" to="-55419512"/>
    <trip id="333" depart="333.00" from="391084169" to="376583498"/>
    <trip id="334" depart="334.00" from="194099240" to="-55418710"/>
    <trip id="335" depart="335.00" from="50732593#3" to="-55419707"/>
    <trip id="336" depart="336.00" from="313262041#0" to="-53473750"/>
    <trip id="337" depart="337.00" from="24775231#8" to="13859254#2"/>
    <trip id="338" depart="338.00" from="-386048812#0" to="34695082"/>
    <trip id="339" depart="339.00" from="349861734#3" to="51189911#0"/>
    <trip id="340" depart="340.00" from="52936773#2" to="52450847"/>
    <trip id="341" depart="341.00" from="52936772#4" to="-249492800"/>
    <trip id="342" depart="342.00" from="10548393#1" to="-376583498"/>
    <trip id="343" depart="343.00" from="-311102597" to="-182130071#1"/>
    <trip id="344" depart="344.00" from="-18598828#2" to="-53788288"/>
    <trip id="345" depart="345.00" from="50002945" to="99242184#0"/>
    <trip id="346" depart="346.00" from="281909407" to="24775231#13"/>
    <trip id="347" depart="347.00" from="386048812#1" to="10548398#1"/>
    <trip id="348" depart="348.00" from="-48703816#3" to="54058913"/>
    <trip id="349" depart="349.00" from="362613169#1" to="379183237#1"/>
    <trip id="350" depart="350.00" from="589250073" to="-29461757#0"/>
    <trip id="351" depart="351.00" from="625329097#1" to="311103273#3"/>
    <trip id="352" depart="352.00" from="10548393#1" to="10548322#7"/>
    <trip id="353" depart="353.00" from="54059177#2" to="-54045837"/>
    <trip id="354" depart="354.00" from="24255940#0" to="23951713#1"/>
    <trip id="355" depart="355.00" from="-48804586#4" to="-53721138#0"/>
    <trip id="356" depart="356.00" from="385839231" to="-351660877"/>
    <trip id="357" depart="357.00" from="13884292#1" to="-50738234#0"/>
    <trip id="358" depart="358.00" from="48847394#0" to="386048812#1"/>
    <trip id="359" depart="359.00" from="-48732490#4" to="-48730911#4"/>
    <trip id="360" depart="360.00" from="48701748#0" to="-51193150#0"/>
    <trip id="361" depart="361.00" from="-204361781#2" to="-379857062"/>
    <trip id="362" depart="362.00" from="53721144" to="48750350#0"/>
    <trip id="363" depart="363.00" from="-13758947#0" to="-54059715#1"/>
    <trip id="364" depart="364.00" from="-52774235#0" to="50738240#1"/>
    <trip id="365" depart="365.00" from="34698634#1" to="-247813317"/>
    <trip id="366" depart="366.00" from="51149923#1" to="-557370436"/>
    <trip id="367" depart="367.00" from="-378241301" to="350014237#9"/>
    <trip id="368" depart="368.00" from="23194251#1" to="48750350#0"/>
    <trip id="369" depart="369.00" from="48809068#2" to="51189504#0"/>
    <trip id="370" depart="370.00" from="182130069" to="-247813317"/>
    <trip id="371" depart="371.00" from="385836966#8" to="389274955#17"/>
    <trip id="372" depart="372.00" from="632064215" to="-51189911#1"/>
    <trip id="373" depart="373.00" from="-376546736#1" to="-359950100#3"/>
    <trip id="374" depart="374.00" from="-376546729#0" to="24745879"/>
    <trip id="375" depart="375.00" from="390003247#1" to="389064307"/>
    <trip id="376" depart="376.00" from="48703019#0" to="185732706"/>
    <trip id="377" depart="377.00" from="308346187#11" to="55419510#0"/>
    <trip id="378" depart="378.00" from="378848515#0" to="54139285"/>
    <trip id="379" depart="379.00" from="235976579#15" to="55419510#1"/>
    <trip id="380" depart="380.00" from="-376546745" to="362368110"/>
    <trip id="381" depart="381.00" from="366452499#3" to="311545831"/>
    <trip id="382" depart="382.00" from="51193149" to="-390001792"/>
    <trip id="383" depart="383.00" from="379857062" to="34695083"/>
    <trip id="384" depart="384.00" from="396537099#0" to="308342362#1"/>
    <trip id="385" depart="385.00" from="52937693" to="34698634#0"/>
    <trip id="386" depart="386.00" from="490386466#1" to="487441125"/>
    <trip id="387" depart="387.00" from="-48730732#2" to="23194251#1"/>
    <trip id="388" depart="388.00" from="54045837" to="52145793"/>
    <trip id="389" depart="389.00" from="379857060" to="-50633780#0"/>
    <trip id="390" depart="390.00" from="112750206" to="376594232"/>
    <trip id="391" depart="391.00" from="51193425#17" to="-24790517#0"/>
    <trip id="392" depart="392.00" from="-18599011#1" to="-487441125"/>
    <trip id="393" depart="393.00" from="-18598828#2" to="349861733#1"/>
    <trip id="394" depart="394.00" from="200571278#2" to="-8748509#0"/>
    <trip id="395" depart="395.00" from="10548323#1" to="-228985624#0"/>
    <trip id="396" depart="396.00" from="-51189504#1" to="378241180"/>
    <trip id="397" depart="397.00" from="-590259486" to="374792303#1"/>
    <trip id="398" depart="398.00" from="98963841#0" to="553338379#1"/>
    <trip id="399" depart="399.00" from="350014237#0" to="-573824332"/>
    <trip id="400" depart="400.00" from="50738234#1" to="112656146"/>
    <trip id="401" depart="401.00" from="200571272#1" to="-313240782"/>
    <trip id="402" depart="402.00" from="-556014494" to="51191251#0"/>
    <trip id="403" depart="403.00" from="313262043#2" to="50061483#4"/>
    <trip id="404" depart="404.00" from="46940715#2" to="490386466#2"/>
    <trip id="405" depart="405.00" from="312877719#0" to="490386466#2"/>
    <trip id="406" depart="406.00" from="98963841#0" to="-18599011#1"/>
    <trip id="407" depart="407.00" from="-48804586#2" to="-48891593"/>
    <trip id="408" depart="408.00" from="-48732490#4" to="-48588739"/>
    <trip id="409" depart="409.00" from="379183237#0" to="-49330950"/>
    <trip id="410" depart="410.00" from="-43444012#3" to="-54045838"/>
    <trip id="411" depart="411.00" from="34698634#1" to="-29461835#1"/>
    <trip id="412" depart="412.00" from="-34695086#0" to="-363602704"/>
    <trip id="413" depart="413.00" from="379183237#0" to="311102597"/>
    <trip id="414" depart="414.00" from="-385836966#2" to="10548335#0"/>
    <trip id="415" depart="415.00" from="200566458#4" to="200566458#6"/>
    <trip id="416" depart="416.00" from="379690186" to="-46940715#2"/>
    <trip id="417" depart="417.00" from="-10548342#1" to="343359263#6"/>