<?xml version="1.0" encoding="UTF-8"?>
<routes xmlns:xsi="http://www.w3.org/2001/XMLSchema-instance" xsi:noNamespaceSchemaLocation="http://sumo.dlr.de/xsd/routes_file.xsd">

  <vType accel="1.0" decel="5.0" id="Car" length="5.0" minGap="2.0" maxSpeed="40.0" sigma="0" />
  <vType accel="1.0" decel="5.0" id="Bus" length="10.0" minGap="2.0" maxSpeed="20.0" sigma="0"/>

  <route id="route0" edges="1to5 5to3" />
  <flow id="route0" route="route0" begin="0" end="3600" period="2" departPos="last" departSpeed="max"/>

  <route id="route1" edges="4to5 5to2" />
  <flow id="route1" route="route1" begin="0" end="3600" period="5" departPos="last" departSpeed="max"/>

  <route id="route3" edges="1to5 5to2" />
  <flow id="route3" route="route3" begin="0" end="3600" period="3" departPos="last" departSpeed="max"/>

  <route id="route4" edges="4to5 5to3" />
  <flow id="route4" route="route4" begin="0" end="3600" period="6" departPos="last" departSpeed="max"/>

  <route id="route5" edges="4to5 5to1" />
  <flow id="route5" route="route5" begin="0" end="3600" period="4" departPos="last" departSpeed="max"/>

  <route id="route6" edges="1to5 5to4" />
  <flow id="route6" route="route6" begin="0" end="3600" period="4" departPos="last" departSpeed="max"/>

  <route id="route7" edges="2to5 5to4" />
  <flow id="route7" route="route7" begin="0" end="3600" period="4" departPos="last" departSpeed="max"/>

  <route id="route2" edges="1to2 2to3 3to4 4to1" />
  <flow id="route2" route="route2" begin="0" end="3600" period="10" departPos="last" departSpeed="max"/>

  <route id="route8" edges="4to3 3to2 2to1 1to4" />
  <flow id="route8" route="route8" begin="0" end="3600" period="8" departPos="last" departSpeed="max"/>

  <vehicle depart="1" id="veh0" route="route0" type="Car"/>
  <vehicle depart="2" id="veh2" route="route1" type="Car" />

</routes>
