<?xml version="1.0" encoding="UTF-8"?>
<edges xmlns:xsi="http://www.w3.org/2001/XMLSchema-instance" xsi:noNamespaceSchemaLocation="http://sumo.dlr.de/xsd/edges_file.xsd">

    <edge from="1" id="1to2" to="2"/>
    <edge from="2" id="2to3" to="3"/>
    <edge from="3" id="3to4" to="4"/>
    <edge from="4" id="4to1" to="1"/>

    <edge from="4" id="4to3" to="3"/>
    <edge from="3" id="3to2" to="2"/>
    <edge from="2" id="2to1" to="1"/>
    <edge from="1" id="1to4" to="4"/>

    <edge from="4" id="4to5" to="5"/>
    <edge from="5" id="5to2" to="2"/>

    <edge from="2" id="2to5" to="5"/>
    <edge from="5" id="5to4" to="4"/>

    <edge from="1" id="1to5" to="5"/>
    <edge from="5" id="5to3" to="3"/>

    <edge from="1" id="1to5" to="5"/>
    <edge from="5" id="5to2" to="2"/>

    <edge from="4" id="4to5" to="5"/>
    <edge from="5" id="5to3" to="3"/>

    <edge from="4" id="4to5" to="5"/>
    <edge from="5" id="5to1" to="1"/>

    <edge from="1" id="1to5" to="5"/>
    <edge from="5" id="5to4" to="4"/>

</edges>
