<?xml version="1.0" encoding="UTF-8"?>
<nodes xmlns:xsi="http://www.w3.org/2001/XMLSchema-instance" xsi:noNamespaceSchemaLocation="http://sumo.dlr.de/xsd/nodes_file.xsd">

    <node id="1" x="0.0" y="0.0"/>
    <node id="2" x="0.0" y="80.0"/>
    <node id="3" x="80.0" y="80.0"/>
    <node id="4" x="80.0" y="0.0"/>
    <node id="5" x="40.0" y="40.0"/>

</nodes>
